ieee24_v33.raw
 0,   100.00, 33,  0,  1,  60.00     / PSS/E-33 RAW
 IEEE 24-Bus Reliability Test System from GridFM
 Converted from gridfm-datakit output
0 / END OF SYSTEM-WIDE DATA, BEGIN BUS DATA
     1,'BUS00001'   ,  138.00, 2,   1,   1, 1.03928,-11.94248
     2,'BUS00002'   ,  138.00, 2,   1,   1, 1.03971,-12.27759
     3,'BUS00003'   ,  138.00, 1,   1,   1, 1.02393,-11.03538
     4,'BUS00004'   ,  138.00, 1,   1,   1, 1.01749,-13.59281
     5,'BUS00005'   ,  138.00, 1,   1,   1, 1.03575,-13.75076
     6,'BUS00006'   ,  138.00, 1,   1,   1, 1.03669,-15.67233
     7,'BUS00007'   ,  138.00, 2,   1,   1, 0.99465,-21.46998
     8,'BUS00008'   ,  138.00, 1,   1,   1, 0.99006,-19.95281
     9,'BUS00009'   ,  138.00, 1,   1,   1, 1.02364,-11.17532
    10,'BUS00010'   ,  138.00, 1,   1,   1, 1.04996,-12.88413
    11,'BUS00011'   ,  230.00, 1,   1,   1, 1.01367, -5.65981
    12,'BUS00012'   ,  230.00, 1,   1,   1, 1.01347, -4.42642
    13,'BUS00013'   ,  230.00, 3,   1,   1, 1.02939,  0.00000
    14,'BUS00014'   ,  230.00, 2,   1,   1, 1.02326, -4.81548
    15,'BUS00015'   ,  230.00, 2,   1,   1, 1.04432,  0.79518
    16,'BUS00016'   ,  230.00, 2,   1,   1, 1.04164,  0.10595
    17,'BUS00017'   ,  230.00, 1,   1,   1, 1.04794,  4.02419
    18,'BUS00018'   ,  230.00, 2,   1,   1, 1.05000,  5.21414
    19,'BUS00019'   ,  230.00, 1,   1,   1, 1.03419, -0.75609
    20,'BUS00020'   ,  230.00, 1,   1,   1, 1.03622,  0.10568
    21,'BUS00021'   ,  230.00, 2,   1,   1, 1.05000,  5.70197
    22,'BUS00022'   ,  230.00, 2,   1,   1, 1.05000,  8.34170
    23,'BUS00023'   ,  230.00, 2,   1,   1, 1.03948,  1.23207
    24,'BUS00024'   ,  230.00, 1,   1,   1, 1.01838, -3.10865
0 / END OF BUS DATA, BEGIN GENERATOR DATA
     1,' 1',  16.00000,   0.00000,  10.00000,   0.00000, 1.03928,  100.00, 1,  20.00000,  16.00000
     1,' 2',  16.00000,   0.00000,  10.00000,   0.00000, 1.03928,  100.00, 1,  20.00000,  16.00000
     1,' 3',  76.00000, -12.40451,  30.00000, -25.00000, 1.03928,  100.00, 1,  76.00000,  15.20000
     1,' 4',  76.00000,   0.00000,  30.00000, -25.00000, 1.03928,  100.00, 1,  76.00000,  15.20000
     2,' 5',  16.00000,   2.26642,  10.00000,   0.00000, 1.03971,  100.00, 1,  20.00000,  16.00000
     2,' 6',  16.00000,   0.00000,  10.00000,   0.00000, 1.03971,  100.00, 1,  20.00000,  16.00000
     2,' 7',  76.00000,   0.00000,  30.00000, -25.00000, 1.03971,  100.00, 1,  76.00000,  15.20000
     2,' 8',   0.00000,   0.00000,  30.00000, -25.00000, 1.03971,  100.00, 0,  76.00000,  15.20000
     7,' 9',  25.00000,  44.06863,  60.00000,   0.00000, 0.99465,  100.00, 1, 100.00000,  25.00000
     7,'10',  25.00000,   0.00000,  60.00000,   0.00000, 0.99465,  100.00, 1, 100.00000,  25.00000
     7,'11',  25.00000,   0.00000,  60.00000,   0.00000, 0.99465,  100.00, 1, 100.00000,  25.00000
    13,'12', 197.00000,  46.73399,  80.00000,   0.00000, 1.02939,  100.00, 1, 197.00000,  69.00000
    13,'13', 197.00000,   0.00000,  80.00000,   0.00000, 1.02939,  100.00, 1, 197.00000,  69.00000
    13,'14', 274.49129,   0.00000,  80.00000,   0.00000, 1.02939,  100.00, 1, 197.00000,  69.00000
    14,'15',   0.00000,  37.18861, 200.00000, -50.00000, 1.02326,  100.00, 1,   0.00000,   0.00000
    15,'16',  12.00000,   6.00000,   6.00000,   0.00000, 1.04432,  100.00, 1,  12.00000,   2.40000
    15,'17',  12.00000,   6.00000,   6.00000,   0.00000, 1.04432,  100.00, 1,  12.00000,   2.40000
    15,'18',   2.40000,   6.00000,   6.00000,   0.00000, 1.04432,  100.00, 1,  12.00000,   2.40000
    15,'19',  12.00000,   6.00000,   6.00000,   0.00000, 1.04432,  100.00, 1,  12.00000,   2.40000
    15,'20',  12.00000,   6.00000,   6.00000,   0.00000, 1.04432,  100.00, 1,  12.00000,   2.40000
    15,'21',  54.30000,  82.23182,  80.00000, -50.00000, 1.04432,  100.00, 1, 155.00000,  54.30000
    16,'22',  54.30000,  65.57068,  80.00000, -50.00000, 1.04164,  100.00, 1, 155.00000,  54.30000
    18,'23', 334.96400,  53.68940, 200.00000, -50.00000, 1.05000,  100.00, 1, 400.00000, 100.00000
    21,'24', 333.42157, -19.69401, 200.00000, -50.00000, 1.05000,  100.00, 1, 400.00000, 100.00000
    22,'25',  10.00000, -10.00000,  16.00000, -10.00000, 1.05000,  100.00, 1,  50.00000,  10.00000
    22,'26',  50.00000, -10.00000,  16.00000, -10.00000, 1.05000,  100.00, 1,  50.00000,  10.00000
    22,'27',  50.00000, -10.00000,  16.00000, -10.00000, 1.05000,  100.00, 1,  50.00000,  10.00000
    22,'28',  50.00000, -10.00000,  16.00000, -10.00000, 1.05000,  100.00, 1,  50.00000,  10.00000
    22,'29',  10.00000,  -0.36823,  16.00000, -10.00000, 1.05000,  100.00, 1,  50.00000,  10.00000
    22,'30',  10.00000,   0.00000,  16.00000, -10.00000, 1.05000,  100.00, 1,  50.00000,  10.00000
    23,'31', 155.00000,   8.45463,  80.00000, -50.00000, 1.03948,  100.00, 1, 155.00000,  54.30000
    23,'32',  54.30000,   0.00000,  80.00000, -50.00000, 1.03948,  100.00, 1, 155.00000,  54.30000
    23,'33', 140.00000,   0.00000, 150.00000, -25.00000, 1.03948,  100.00, 1, 350.00000, 140.00000
0 / END OF GENERATOR DATA, BEGIN LOAD DATA
     1,'1', 1,   1,   1, 105.39961,  21.67741,0.00000,0.00000,0.00000,0.00000,1,1,0
     2,'1', 1,   1,   1,  95.40473,  13.63324,0.00000,0.00000,0.00000,0.00000,1,1,0
     3,'1', 1,   1,   1, 154.50977,  28.05811,0.00000,0.00000,0.00000,0.00000,1,1,0
     4,'1', 1,   1,   1,  69.13695,  10.53809,0.00000,0.00000,0.00000,0.00000,1,1,0
     5,'1', 1,   1,   1,  64.69041,  10.10669,0.00000,0.00000,0.00000,0.00000,1,1,0
     6,'1', 1,   1,   1, 106.46564,  23.36475,0.00000,0.00000,0.00000,0.00000,1,1,0
     7,'1', 1,   1,   1, 121.80175,  23.02311,0.00000,0.00000,0.00000,0.00000,1,1,0
     8,'1', 1,   1,   1, 118.51236,  25.59280,0.00000,0.00000,0.00000,0.00000,1,1,0
     9,'1', 1,   1,   1, 148.72854,  31.11638,0.00000,0.00000,0.00000,0.00000,1,1,0
    10,'1', 1,   1,   1, 143.61583,  28.72011,0.00000,0.00000,0.00000,0.00000,1,1,0
    13,'1', 1,   1,   1, 254.84465,  48.11217,0.00000,0.00000,0.00000,0.00000,1,1,0
    14,'1', 1,   1,   1, 180.85607,  28.96325,0.00000,0.00000,0.00000,0.00000,1,1,0
    15,'1', 1,   1,   1, 218.08327,  46.70519,0.00000,0.00000,0.00000,0.00000,1,1,0
    16,'1', 1,   1,   1,  94.95000,  18.62589,0.00000,0.00000,0.00000,0.00000,1,1,0
    18,'1', 1,   1,   1, 224.99608,  55.20297,0.00000,0.00000,0.00000,0.00000,1,1,0
    19,'1', 1,   1,   1, 161.97813,  29.16515,0.00000,0.00000,0.00000,0.00000,1,1,0
    20,'1', 1,   1,   1,  93.67539,  21.83182,0.00000,0.00000,0.00000,0.00000,1,1,0
0 / END OF LOAD DATA, BEGIN BRANCH DATA
     1,     2,'1',    0.002581,    0.013266,    0.461100,    175.00, 1
     1,     3,'2',    0.064136,    0.169428,    0.057200,    175.00, 1
     1,     5,'3',    0.020314,    0.085113,    0.022900,    175.00, 1
     2,     4,'4',    0.035744,    0.109117,    0.034300,    175.00, 1
     2,     6,'5',    0.058076,    0.190516,    0.052000,    175.00, 1
     3,     9,'6',    0.031005,    0.141364,    0.032200,    175.00, 1
     3,    24,'7',    0.002599,    0.086407,    0.000000,    400.00, 1
     4,     9,'8',    0.023053,    0.099741,    0.028100,    175.00, 1
     5,    10,'9',    0.019303,    0.072724,    0.023900,    175.00, 1
     6,    10,'10',    0.012131,    0.070755,    2.459000,    175.00, 1
     7,     8,'1',    0.012751,    0.049752,    0.016600,    175.00, 1
     8,     9,'2',    0.041024,    0.166853,    0.044700,    175.00, 1
     8,    10,'3',    0.046630,    0.175669,    0.044700,    175.00, 1
     9,    11,'4',    0.002107,    0.076311,    0.000000,    400.00, 1
     9,    12,'5',    0.002478,    0.075642,    0.000000,    400.00, 1
    10,    11,'6',    0.002142,    0.086933,    0.000000,    400.00, 1
    10,    12,'7',    0.002713,    0.087596,    0.000000,    400.00, 1
    11,    13,'8',    0.007198,    0.043613,    0.099900,    500.00, 1
    11,    14,'9',    0.004802,    0.036458,    0.087900,    500.00, 1
    12,    13,'10',    0.006133,    0.039699,    0.099900,    500.00, 1
    12,    23,'1',    0.014864,    0.080645,    0.203000,    500.00, 1
    13,    23,'2',    0.011957,    0.081582,    0.181800,    500.00, 1
    14,    16,'3',    0.005831,    0.040643,    0.081800,    500.00, 1
    15,    16,'4',    0.002086,    0.017698,    0.036400,    500.00, 1
    15,    21,'5',    0.007285,    0.048237,    0.103000,    500.00, 1
    15,    21,'6',    0.005155,    0.057597,    0.103000,    500.00, 1
    15,    24,'7',    0.006502,    0.045692,    0.109100,    500.00, 1
    16,    17,'8',    0.003580,    0.028129,    0.054500,    500.00, 1
    16,    19,'9',    0.003442,    0.024830,    0.048500,    500.00, 1
    17,    18,'10',    0.001463,    0.012946,    0.030300,    500.00, 1
    17,    22,'1',    0.012199,    0.091218,    0.221200,    500.00, 1
    18,    21,'2',    0.003219,    0.025725,    0.054500,    500.00, 1
    18,    21,'3',    0.002766,    0.030531,    0.054500,    500.00, 1
    19,    20,'4',    0.005073,    0.032874,    0.083300,    500.00, 1
    19,    20,'5',    0.005930,    0.035573,    0.083300,    500.00, 1
    20,    23,'6',    0.002333,    0.022069,    0.045500,    500.00, 1
    20,    23,'7',    0.003027,    0.023253,    0.045500,    500.00, 1
    21,    22,'8',    0.009885,    0.054857,    0.142400,    500.00, 1
0 / END OF BRANCH DATA, BEGIN TRANSFORMER DATA
0 / END OF TRANSFORMER DATA, BEGIN AREA DATA
0 / END OF AREA DATA, BEGIN TWO-TERMINAL DC DATA
0 / END OF TWO-TERMINAL DC DATA, BEGIN SWITCHED SHUNT DATA
0 / END OF SWITCHED SHUNT DATA, BEGIN IMPEDANCE CORRECTION DATA
0 / END OF IMPEDANCE CORRECTION DATA, BEGIN MULTI-TERMINAL DC DATA
0 / END OF MULTI-TERMINAL DC DATA, BEGIN MULTI-SECTION LINE DATA
0 / END OF MULTI-SECTION LINE DATA, BEGIN ZONE DATA
0 / END OF ZONE DATA, BEGIN INTER-AREA TRANSFER DATA
0 / END OF INTER-AREA TRANSFER DATA, BEGIN OWNER DATA
0 / END OF OWNER DATA, BEGIN FACTS DEVICE DATA
Q
